@<TRIPOS>MOLECULE
MOL
  101   100     1     0     0
SMALL
resp


@<TRIPOS>ATOM
      1 P1          -0.2690    -0.0370    -0.1580 p5         1 MOL       0.368254
      2 C1           0.5150     0.7140     1.3190 c3         1 MOL      -0.139708
      3 H1           1.5820     0.8030     1.0840 hc         1 MOL       0.065804
      4 H2           0.4360    -0.0210     2.1260 hc         1 MOL       0.065804
      5 C2          -0.0560     2.0710     1.7660 c3         1 MOL       0.014316
      6 H3          -1.1170     1.9650     2.0140 hc         1 MOL       0.017972
      7 H4           0.0050     2.7960     0.9470 hc         1 MOL       0.017972
      8 C3           0.6930     2.6300     2.9850 c3         1 MOL      -0.003884
      9 H5           1.7560     2.7380     2.7380 hc         1 MOL       0.016932
     10 H6           0.6390     1.9040     3.8060 hc         1 MOL       0.016932
     11 C4           0.1390     3.9790     3.4590 c3         1 MOL      -0.0063872
     12 H7          -0.9260     3.8690     3.7030 hc         1 MOL       0.0061592
     13 H8           0.1920     4.7020     2.6360 hc         1 MOL       0.0061592
     14 C5           0.8800     4.5430     4.6770 c3         1 MOL      -0.0045168
     15 H9           1.9450     4.6520     4.4340 hc         1 MOL       0.0025312
     16 H10          0.8270     3.8190     5.5000 hc         1 MOL       0.0025312
     17 C6           0.3290     5.8920     5.1530 c3         1 MOL      -0.0195784
     18 H11         -0.7360     5.7840     5.3950 hc         1 MOL       0.008336
     19 H12          0.3820     6.6160     4.3300 hc         1 MOL       0.008336
     20 C7           1.0680     6.4580     6.3720 c3         1 MOL       0.0877312
     21 C8           0.5110     7.8060     6.8410 c3         1 MOL      -0.1479008
     22 H13          2.1320     6.5670     6.1300 hc         1 MOL      -0.00818
     23 H14          1.0140     5.7350     7.1940 hc         1 MOL      -0.00818
     24 H15          1.0590     8.1810     7.7090 hc         1 MOL       0.0362496
     25 H16          0.5840     8.5610     6.0520 hc         1 MOL       0.0362496
     26 H17         -0.5430     7.7230     7.1240 hc         1 MOL       0.0362496
     27 C9           0.4550    -1.7100    -0.3400 c3         1 MOL      -0.139708
     28 H18          0.2880    -2.2160     0.6170 hc         1 MOL       0.0658064
     29 H19          1.5370    -1.5630    -0.4250 hc         1 MOL       0.0658064
     30 C10         -0.0660    -2.5760    -1.5000 c3         1 MOL       0.014316
     31 H20          0.1520    -2.0890    -2.4560 hc         1 MOL       0.017972
     32 H21         -1.1550    -2.6740    -1.4370 hc         1 MOL       0.017972
     33 C11          0.5670    -3.9750    -1.4920 c3         1 MOL      -0.003884
     34 H22          0.3510    -4.4640    -0.5340 hc         1 MOL       0.016932
     35 H23          1.6580    -3.8780    -1.5490 hc         1 MOL       0.016932
     36 C12          0.0730    -4.8610    -2.6410 c3         1 MOL      -0.0063872
     37 H24          0.2920    -4.3700    -3.5980 hc         1 MOL       0.0061592
     38 H25         -1.0190    -4.9520    -2.5860 hc         1 MOL       0.0061592
     39 C13          0.6970    -6.2620    -2.6370 c3         1 MOL      -0.0045168
     40 H26          0.4790    -6.7530    -1.6800 hc         1 MOL       0.0025312
     41 H27          1.7900    -6.1710    -2.6900 hc         1 MOL       0.0025312
     42 C14          0.2060    -7.1500    -3.7850 c3         1 MOL      -0.0195784
     43 H28          0.4260    -6.6600    -4.7430 hc         1 MOL       0.008336
     44 H29         -0.8860    -7.2400    -3.7330 hc         1 MOL       0.008336
     45 C15          0.8280    -8.5520    -3.7830 c3         1 MOL       0.0877312
     46 C16          0.3320    -9.4330    -4.9330 c3         1 MOL      -0.1479008
     47 H30          0.6080    -9.0420    -2.8270 hc         1 MOL      -0.00818
     48 H31          1.9190    -8.4630    -3.8360 hc         1 MOL      -0.00818
     49 H32          0.7930   -10.4230    -4.9020 hc         1 MOL       0.0362496
     50 H33         -0.7530    -9.5710    -4.8870 hc         1 MOL       0.0362496
     51 H34          0.5680    -8.9870    -5.9040 hc         1 MOL       0.0362496
     52 C17          0.1200     1.0120    -1.6130 c3         1 MOL      -0.139708
     53 H35          1.1610     0.7920    -1.8740 hc         1 MOL       0.0658064
     54 H36          0.1030     2.0460    -1.2550 hc         1 MOL       0.0658064
     55 C18         -0.7940     0.8710    -2.8440 c3         1 MOL       0.014316
     56 H37         -1.8200     1.1400    -2.5740 hc         1 MOL       0.017972
     57 H38         -0.8210    -0.1680    -3.1840 hc         1 MOL       0.017972
     58 C19         -0.3260     1.7700    -3.9980 c3         1 MOL      -0.003884
     59 H39          0.7020     1.5030    -4.2710 hc         1 MOL       0.016932
     60 H40         -0.2930     2.8110    -3.6550 hc         1 MOL       0.016932
     61 C20         -1.2250     1.6690    -5.2360 c3         1 MOL      -0.0063872
     62 H41         -2.2530     1.9340    -4.9600 hc         1 MOL       0.0061592
     63 H42         -1.2580     0.6260    -5.5770 hc         1 MOL       0.0061592
     64 C21         -0.7650     2.5650    -6.3920 c3         1 MOL      -0.0045168
     65 H43          0.2640     2.3000    -6.6680 hc         1 MOL       0.0025312
     66 H44         -0.7300     3.6070    -6.0500 hc         1 MOL       0.0025312
     67 C22         -1.6620     2.4690    -7.6310 c3         1 MOL      -0.0195784
     68 H45         -2.6910     2.7340    -7.3560 hc         1 MOL       0.008336
     69 H46         -1.6980     1.4270    -7.9730 hc         1 MOL       0.008336
     70 C23         -1.2040     3.3640    -8.7890 c3         1 MOL       0.0877312
     71 C24         -2.1050     3.2620   -10.0220 c3         1 MOL      -0.1479008
     72 H47         -0.1760     3.0990    -9.0640 hc         1 MOL      -0.00818
     73 H48         -1.1680     4.4050    -8.4470 hc         1 MOL      -0.00818
     74 H49         -1.7510     3.9110   -10.8270 hc         1 MOL       0.0362496
     75 H50         -2.1330     2.2390   -10.4100 hc         1 MOL       0.0362496
     76 H51         -3.1330     3.5560    -9.7880 hc         1 MOL       0.0362496
     77 C25         -2.0790    -0.1450     0.0740 c3         1 MOL      -0.139708
     78 H52         -2.4910    -0.5720    -0.8450 hc         1 MOL       0.0658064
     79 H53         -2.4490     0.8840     0.1320 hc         1 MOL       0.0658064
     80 C26         -2.5320    -0.9580     1.3010 c3         1 MOL       0.014316
     81 H54         -2.1020    -0.5330     2.2140 hc         1 MOL       0.017972
     82 H55         -2.1600    -1.9850     1.2260 hc         1 MOL       0.017972
     83 C27         -4.0620    -0.9850     1.4310 c3         1 MOL      -0.003884
     84 H56         -4.4950    -1.4080     0.5160 hc         1 MOL       0.016932
     85 H57         -4.4370     0.0430     1.5030 hc         1 MOL       0.016932
     86 C28         -4.5440    -1.7910     2.6440 c3         1 MOL      -0.0063872
     87 H58         -4.1070    -1.3680     3.5570 hc         1 MOL       0.0061592
     88 H59         -4.1660    -2.8180     2.5700 hc         1 MOL       0.0061592
     89 C29         -6.0710    -1.8230     2.7810 c3         1 MOL      -0.0045168
     90 H60         -6.5080    -2.2450     1.8670 hc         1 MOL       0.0025312
     91 H61         -6.4490    -0.7950     2.8530 hc         1 MOL       0.0025312
     92 C30         -6.5560    -2.6270     3.9920 c3         1 MOL      -0.0195784
     93 H62         -6.1200    -2.2050     4.9060 hc         1 MOL       0.008336
     94 H63         -6.1770    -3.6550     3.9200 hc         1 MOL       0.008336
     95 C31         -8.0830    -2.6610     4.1320 c3         1 MOL       0.0877312
     96 C32         -8.5590    -3.4670     5.3440 c3         1 MOL      -0.1479008
     97 H64         -8.5190    -3.0830     3.2180 hc         1 MOL      -0.00818
     98 H65         -8.4610    -1.6350     4.2040 hc         1 MOL      -0.00818
     99 H66         -9.6490    -3.4710     5.4140 hc         1 MOL       0.0362496
    100 H67         -8.2270    -4.5080     5.2830 hc         1 MOL       0.0362496
    101 H68         -8.1680    -3.0480     6.2760 hc         1 MOL       0.0362496
@<TRIPOS>BOND
     1     1     2 1   
     2     1    27 1   
     3     1    52 1   
     4     1    77 1   
     5     2     3 1   
     6     2     4 1   
     7     2     5 1   
     8     5     6 1   
     9     5     7 1   
    10     5     8 1   
    11     8     9 1   
    12     8    10 1   
    13     8    11 1   
    14    11    12 1   
    15    11    13 1   
    16    11    14 1   
    17    14    15 1   
    18    14    16 1   
    19    14    17 1   
    20    17    18 1   
    21    17    19 1   
    22    17    20 1   
    23    20    21 1   
    24    20    22 1   
    25    20    23 1   
    26    21    24 1   
    27    21    25 1   
    28    21    26 1   
    29    27    28 1   
    30    27    29 1   
    31    27    30 1   
    32    30    31 1   
    33    30    32 1   
    34    30    33 1   
    35    33    34 1   
    36    33    35 1   
    37    33    36 1   
    38    36    37 1   
    39    36    38 1   
    40    36    39 1   
    41    39    40 1   
    42    39    41 1   
    43    39    42 1   
    44    42    43 1   
    45    42    44 1   
    46    42    45 1   
    47    45    46 1   
    48    45    47 1   
    49    45    48 1   
    50    46    49 1   
    51    46    50 1   
    52    46    51 1   
    53    52    53 1   
    54    52    54 1   
    55    52    55 1   
    56    55    56 1   
    57    55    57 1   
    58    55    58 1   
    59    58    59 1   
    60    58    60 1   
    61    58    61 1   
    62    61    62 1   
    63    61    63 1   
    64    61    64 1   
    65    64    65 1   
    66    64    66 1   
    67    64    67 1   
    68    67    68 1   
    69    67    69 1   
    70    67    70 1   
    71    70    71 1   
    72    70    72 1   
    73    70    73 1   
    74    71    74 1   
    75    71    75 1   
    76    71    76 1   
    77    77    78 1   
    78    77    79 1   
    79    77    80 1   
    80    80    81 1   
    81    80    82 1   
    82    80    83 1   
    83    83    84 1   
    84    83    85 1   
    85    83    86 1   
    86    86    87 1   
    87    86    88 1   
    88    86    89 1   
    89    89    90 1   
    90    89    91 1   
    91    89    92 1   
    92    92    93 1   
    93    92    94 1   
    94    92    95 1   
    95    95    96 1   
    96    95    97 1   
    97    95    98 1   
    98    96    99 1   
    99    96   100 1   
   100    96   101 1   
@<TRIPOS>SUBSTRUCTURE
     1 MOL         1 TEMP              0 ****  ****    0 ROOT
